Warning: v1: no DC value, transient time 0 value used
Warning: singular matrix:  check nodes 3 and 3

Warning: singular matrix:  check nodes 3 and 3

Note: Starting dynamic gmin stepping
Trying gmin =   1.0000E-03 Note: One successful gmin step
Trying gmin =   1.0000E-04 Note: One successful gmin step
Trying gmin =   1.0000E-05 Note: One successful gmin step
Trying gmin =   1.0000E-06 Note: One successful gmin step
Trying gmin =   1.0000E-07 Note: One successful gmin step
Trying gmin =   1.0000E-08 Note: One successful gmin step
Trying gmin =   1.0000E-09 Note: One successful gmin step
Trying gmin =   1.0000E-10 Note: One successful gmin step
Trying gmin =   1.0000E-11 Note: One successful gmin step
Trying gmin =   1.0000E-12 Note: One successful gmin step
Trying gmin =   1.0000E-12 Note: One successful gmin step
Warning: singular matrix:  check nodes 3 and 3

Warning: Dynamic gmin stepping failed
Note: Starting source stepping
Supplies reduced to   0.0000% Warning: singular matrix:  check nodes 3 and 3


Trying gmin =   1.0000E-02 Note: One successful gmin step
Trying gmin =   1.0000E-03 Note: One successful gmin step
Trying gmin =   1.0000E-04 Note: One successful gmin step
Trying gmin =   1.0000E-05 Note: One successful gmin step
Trying gmin =   1.0000E-06 Note: One successful gmin step
Trying gmin =   1.0000E-07 Note: One successful gmin step
Trying gmin =   1.0000E-08 Note: One successful gmin step
Trying gmin =   1.0000E-09 Note: One successful gmin step
Trying gmin =   1.0000E-10 Note: One successful gmin step
Trying gmin =   1.0000E-11 Note: One successful gmin step
Trying gmin =   1.0000E-12 Note: One successful gmin step
Note: One successful source step
Supplies reduced to   0.1000% Warning: singular matrix:  check nodes 3 and 3

Supplies reduced to   0.0000% Warning: singular matrix:  check nodes 3 and 3

Warning: source stepping failed
doAnalyses: iteration limit reached

run simulation(s) aborted
Error(parse.c--checkvalid): pgnd: no such vector.

Circuit: **************************************************************

Error on line 14 : u1 pgnd 5 -12v +12v unknown
Unable to find definition of model +12v - default assumed 

 unknown parameter (unknown) 
Doing analysis at TEMP = 27.000000 and TNOM = 27.000000


elapsed time since last call: 0.013 seconds.

Total elapsed time: 0.013 seconds.

Total DRAM available = 7896.910156 MB.
DRAM currently available = 87.683594 MB.
Total ngspice program size = 19.934570 MB.
Resident set size = 931.000 kB.
Shared ngspice pages = 686.000 kB.
Text (code) pages = 1.269531 MB.
Stack = 0 bytes.
Library pages = 5.990234 MB.


